   20
 
 C     0.000000     0.000000     0.000000
 C    -0.683537    -1.183920    -0.483333
 C    -0.683537    -1.183920    -1.933333
 C    -1.367073    -2.367841    -2.416666
 C    -1.367074    -2.367841    -3.866666
 H     0.000000     0.000000     1.089000
 H     1.026719     0.000000    -0.363000
 H    -0.513360     0.889165    -0.363000
 H    -0.170177    -2.073085    -0.120333
 H    -1.710256    -1.183920    -0.120333
 H    -1.196896    -0.294755    -2.296333
 C     0.683536    -1.183920    -2.416667
 H    -0.853714    -3.257005    -2.053665
 H    -2.393792    -2.367841    -2.053666
 H    -1.880434    -3.257006    -4.229666
 H    -1.880434    -1.478676    -4.229666
 H    -0.340355    -2.367841    -4.229666
 H     0.683536    -1.183921    -3.505667
 H     1.196895    -0.294756    -2.053667
 H     1.196895    -2.073085    -2.053666
