
  -ISIS-  03289914493D

  5  4  0  0  0  0  0  0  0  0999 V2000
    2.1283   -1.4600    0.0558 C   0  0  1  0  0  0  0  0  0  0  0  0
    3.2410   -1.4573    0.0472 Cl  0  0  0  0  0  0  0  0  0  0  0  0
    1.7597   -2.5101    0.0466 Br  0  0  0  0  0  0  0  0  0  0  0  0
    1.7462   -0.9247   -0.8421 H   0  0  0  0  0  0  0  0  0  0  0  0
    1.7663   -0.9478    0.9753 I   0  0  0  0  0  0  0  0  0  0  0  0
  1  2  1  0  0  0  0
  1  3  1  0  0  0  0
  1  4  1  6  0  0  0
  1  5  1  1  0  0  0
M  END
