
  -ISIS-  04049914473D

  6  5  0  0  0  0  0  0  0  0999 V2000
    2.4206   -0.6348   -0.2066 C   0  0  0  0  0  0  0  0  0  0  0  0
    3.6631   -0.9174    0.2054 C   0  0  0  0  0  0  0  0  0  0  0  0
    2.2276    0.2015   -0.8962 H   0  0  0  0  0  0  0  0  0  0  0  0
    1.5594   -1.2315    0.1322 Cl  0  0  0  0  0  0  0  0  0  0  0  0
    3.8562   -1.7543    0.8943 Cl  0  0  0  0  0  0  0  0  0  0  0  0
    4.5244   -0.3214   -0.1341 H   0  0  0  0  0  0  0  0  0  0  0  0
  1  2  2  0  0  0  0
  1  3  1  6  0  0  0
  1  4  1  1  0  0  0
  2  5  1  1  0  0  0
  2  6  1  6  0  0  0
M  END
