
  -ISIS-  03139901153D

  4  4  0  0  0  0  0  0  0  0999 V2000
   -1.0254    0.1439    0.3141 C   0  0  0  0  0  0  0  0  0  0  0  0
    0.3073   -0.2411    1.0018 C   0  0  0  0  0  0  0  0  0  0  0  0
    1.0483    0.2129   -0.2794 C   0  0  0  0  0  0  0  0  0  0  0  0
   -0.2896    0.0786   -1.0466 C   0  0  0  0  0  0  0  0  0  0  0  0
  1  2  1  0  0  0  0
  1  4  1  6  0  0  0
  2  3  1  6  0  0  0
  3  4  1  6  0  0  0
M  END
