
  -ISIS-  04069920273D

 23 22  0  0  0  0  0  0  0  0999 V2000
    4.5668   -6.9895   -0.0558 C   0  0  3  0  0  0  0  0  0  0  0  0
    4.0213   -7.0083   -0.1992 C   0  0  3  0  0  0  0  0  0  0  0  0
    2.9728   -7.0678   -0.4879 C   0  0  0  0  0  0  0  0  0  0  0  0
    3.4456   -7.0302   -0.3559 C   0  0  3  0  0  0  0  0  0  0  0  0
    2.9002   -0.6112   -3.3208 C   0  0  0  0  0  0  0  0  0  0  0  0
    2.1057   -2.0735   -1.4821 C   0  0  0  0  0  0  0  0  0  0  0  0
    2.2848   -3.6032   -0.6166 C   0  0  0  0  0  0  0  0  0  0  0  0
    4.7342    0.3795   -2.5657 C   0  0  0  0  0  0  0  0  0  0  0  0
    3.9705   -0.8770   -1.2917 C   0  0  0  0  0  0  0  0  0  0  0  0
    3.2407   -3.2707   -0.3501 C   0  0  0  0  0  0  0  0  0  0  0  0
    3.5634   -1.8880   -0.7579 C   0  0  0  0  0  0  0  0  0  0  0  0
    6.3092    0.3841   -2.0099 C   0  0  0  0  0  0  0  0  0  0  0  0
    5.5644   -0.6114   -0.9642 C   0  0  0  0  0  0  0  0  0  0  0  0
    4.9939   -1.4314   -0.3808 C   0  0  0  0  0  0  0  0  0  0  0  0
    4.3526   -3.0020   -0.0045 C   0  0  0  0  0  0  0  0  0  0  0  0
    5.2474   -3.2548    0.2648 C   0  0  0  0  0  0  0  0  0  0  0  0
    5.9401   -1.7297    0.2215 C   0  0  0  0  0  0  0  0  0  0  0  0
    6.7430   -0.6637   -0.4184 C   0  0  0  0  0  0  0  0  0  0  0  0
    7.2497   -0.1578   -1.0901 C   0  0  0  0  0  0  0  0  0  0  0  0
    5.1814   -7.0240    0.1097 C   0  0  0  0  0  0  0  0  0  0  0  0
    7.3665   -4.6102   -0.1264 O   0  0  0  0  0  0  0  0  0  0  0  0
    8.1544   -2.9463   -0.2108 O   0  0  0  0  0  0  0  0  0  0  0  0
    7.6331   -1.5434   -0.3989 O   0  0  0  0  0  0  0  0  0  0  0  0
 12 13  1  0  0  0  0
  5  6  1  0  0  0  0
 13 14  1  0  0  0  0
  9  8  1  0  0  0  0
 14 15  1  0  0  0  0
  2 15  1  0  0  0  0
  1  2  1  0  0  0  0
  6  7  1  0  0  0  0
 16 17  1  0  0  0  0
 10 11  1  0  0  0  0
 17 18  1  0  0  0  0
 11  9  1  0  0  0  0
 18 19  1  0  0  0  0
  1 16  1  0  0  0  0
  4 10  1  0  0  0  0
  2  4  1  0  0  0  0
  3  7  1  0  0  0  0
 21 22  1  0  0  0  0
  3  4  1  0  0  0  0
 22 23  1  0  0  0  0
 20 21  1  0  0  0  0
  1 20  1  0  0  0  0
M  END
