   23
 
 C    -3.155000    -4.438100    -4.092600  0.000000
 C    -3.619200    -3.190500    -3.293100  0.000000
 C    -2.523900    -2.581700    -2.361400  0.000000
 C    -2.041200    -3.613500    -1.294000  0.000000
 C    -1.023400    -3.080700    -0.242700  0.000000
 C     0.279400    -2.528600    -0.880000  0.000000
 H    -2.211500    -4.228100    -4.619800  0.000000
 H    -3.918400    -4.707400    -4.840100  0.000000
 H    -3.013100    -5.308900    -3.435500  0.000000
 H    -4.509600    -3.456000    -2.699700  0.000000
 H    -3.921300    -2.426100    -4.029100  0.000000
 C    -3.086300    -1.289700    -1.700200  0.000000
 H    -1.670700    -2.297000    -3.000200  0.000000
 H    -1.554500    -4.460600    -1.801900  0.000000
 H    -2.921300    -4.000800    -0.754700  0.000000
 H    -0.747100    -3.920200     0.419000  0.000000
 H    -1.484600    -2.310000     0.394700  0.000000
 H     1.002900    -2.273200    -0.089400  0.000000
 H     0.084400    -1.619200    -1.466900  0.000000
 H     0.734800    -3.285000    -1.538000  0.000000
 H    -3.888600    -1.544300    -0.990800  0.000000
 H    -3.499000    -0.610600    -2.462300  0.000000
 H    -2.303400    -0.734200    -1.164200  0.000000
