 19

 C     0.164935    -0.620221    -2.786861
 C     0.164935    -0.620221    -1.289765
 H     1.201039    -0.620221    -0.844957
 C    -0.762595    -1.536980    -0.587704
 H     0.859841     0.165139    -3.176786
 H    -0.854985    -0.423541    -3.198311
 H     0.520230    -1.622477    -3.148495
 O    -0.379230     0.801334    -0.882695
 H    -0.002342     1.477818    -1.514388
 C    -1.742435    -2.265093    -1.271064
 C    -2.580593    -3.132858    -0.573693
 C    -2.451933    -3.271284     0.809515
 C    -1.480402    -2.540702     1.498110
 C    -0.637785    -1.673432     0.805397
 H    -1.850951    -2.165153    -2.362125
 H    -3.347676    -3.705969    -1.115347
 H    -3.118702    -3.954190     1.358054
 H    -1.381605    -2.641978     2.589661
 H     0.125745    -1.084460     1.347154
