
  -ISIS-  03149916453D

  6  6  0  0  0  0  0  0  0  0999 V2000
   -1.0813    0.9714   -0.1290 C   0  0  0  0  0  0  0  0  0  0  0  0
   -1.0515   -0.0378    1.0112 C   0  0  0  0  0  0  0  0  0  0  0  0
    0.3936   -0.3747    1.3542 C   0  0  0  0  0  0  0  0  0  0  0  0
    1.0811   -0.9686    0.1319 C   0  0  0  0  0  0  0  0  0  0  0  0
    1.0497    0.0390   -1.0105 C   0  0  0  0  0  0  0  0  0  0  0  0
   -0.3955    0.3770   -1.3521 C   0  0  0  0  0  0  0  0  0  0  0  0
  1  2  1  1  0  0  0
  1  6  1  6  0  0  0
  2  3  1  0  0  0  0
  3  4  1  6  0  0  0
  4  5  1  6  0  0  0
  5  6  1  0  0  0  0
M  END
