   21
 
 C     0.000000     0.000000     0.000000
Br     0.000000     0.000000     1.900000
 C     1.367073     0.000000    -0.483333
 C    -0.683537    -1.183920    -0.483333
 C    -0.683537     1.183920    -0.483333
 C    -0.683537    -1.183920    -1.933333
 C     0.000000    -2.367840     0.000000
 O    -2.003469    -1.183920    -0.016667
 H    -1.196896    -2.073085    -2.296333
 H    -1.196896    -0.294755    -2.296333
 H     0.343182    -1.183920    -2.296333
 H    -0.513360    -3.257005    -0.363000
 H     1.026719    -2.367840    -0.363000
 H     0.000000    -2.367840     1.089000
 H    -2.449889    -1.957142    -0.332333
 F     1.367073     0.000000    -1.883333
 H     1.880433     0.889165    -0.120333
 H     1.880433    -0.889165    -0.120333
 H    -0.683537     1.183920    -1.572333
 H    -1.710256     1.183920    -0.120333
 H    -0.170177     2.073085    -0.120333
